 * Z:\home\m0rtal\uni\Lab\LTSPICE\Draft1.asc
V1 N001 0 AC 1 0
R1 N002 N001 10
L1 N002 out AC 1 0
C1 out 0 1u
.ac dec 100 10 10k
.end
