* Z:\home\m0rtal\uni\Lab\LTSPICE\Draft5.asc
Q1 out N005 N006 NPN
Q2 N003 N004 N006 NPN
V1 N002 0 10
R1 N002 N003 10k
R2 N002 out 10k
V3 N004 0 AC 0.5 0
V4 N005 0 AC -0.5 0
I1 N006 0 1m
R3 N006 0 100k
.op
.ac dec 100 10 10000
.end
