* Z:\home\m0rtal\uni\Lab\LTSPICE\Draft2.asc
Q1 N001 N005 N006 NPN
Q2 N003 N004 N006 NPN
V1 N002 0 10
R1 N002 N003 10k
R2 N002 N001 10k
Q3 N006 N007 N008 NPN
Q4 N007 N007 N008 NPN
V2 N008 0 -10
R3 0 N007 9.3k
V3 N004 0 AC 0.5 0
V4 N005 0 AC -0.5 0
R4 N006 0 10k
.ac dec 100 10 10k
.end
