* E:\1. ICL\Y1 Project\Draft2.asc
V1 N001 0 10
V2 N002 0 AC 1 0
Q1 out N003 N004 NPN
R1 N001 out 5k
R2 N004 0 1k
R3 N001 N003 4k
R4 N003 0 800
C1 N003 N002 10u
.ac dec 100 10 10k
.end
