* Z:\home\m0rtal\uni\Lab\LTSPICE\Draft3.asc
V1 N003 0 10
L1 N003 N001 1
I1 0 N002 1
R1 N002 N001 1
C1 N002 N001 1
R2 N001 0 1
.ac dec 1 1 1
.op
.backanno
.end

