* NMOS Amp
M1 out N003 P001 NMOS
C1 N003 N002 10u
V1 N002 0 AC 1 0
V2 N001 0 10
R1 N001 N003 1.8k
R2 N001 out 5k
R3 P001 0 1k
R4 N003 0 800
.ac dec 100 10 10k
.end
