* A BJT Differential amplifier for testing
V1 N003 0 10
R1 N003 N001 10k
R2 N003 N002 10k
Q1 N002 N005 N006 NPN
Q2 N001 N004 N006 NPN
Q3 N006 N007 N008 NPN
Q4 N007 N007 N008 NPN
R3 0 N007 9.3
V2 N008 0 -10
V3 N005 0 AC 0.01 0
V4 N004 0 AC 0 0
.ac dec 1 1 1
.end