* NPN Differential Amp 
Q1 out N004 N005 NPN
Q2 N002 N003 N005 NPN
R1 N001 N002 10k
R2 N001 out 10k
V1 N001 0 10
V2 N003 0 AC 0.5 0
V3 N004 0 AC -0.5 0
I1 N005 0 1m
R3 N005 0 100k
.ac dec 100 10 10k
.end
