* Diode Example
R1 N002 N001 20k
D1 N002 0 D
V1 N001 0 3
.ac dec 1 1 1
.end