* Diode Example
* OP POINT SOLVER CONVERGED IN 8 ITERATIONS WITH THE FOLLOWING VOLTAGES:
* 0.6033758868045499
* 3
R1 N002 N001 20k
D1 N002 0 D
V1 N001 0 3
.ac dec 1 1 1
.end