* C:\Users\vande\Desktop\ADC lab 3\example_fromLT.asc
V1 N001 0 5
R1 N002 N001 5k
L1 N002 0 50m
V2 N003 0 2
C1 N003 N002 10k
.ac oct 12 100 10k
.TEMP 25
.backanno
.end