* Z:\home\m0rtal\uni\Lab\LTSPICE\Draft1.asc
R1 N001 0 2
R3 N002 0 8
R2 N003 N002 4
V1 N002 N001 32
V2 N003 0 20
.ac dec 1 1 1
.backanno
.end
