* Based on ADC question 1)e 2020 exam
M1 N001 N002 N003 NMOS
M2 N005 N004 N003 NMOS
V1 N002 0 10m
V2 0 N004 10m
V3 N007 0 5
V4 0 N006 5
I1 N003 N006 1m
R3 N003 N006 100k
R1 N007 N001 10k
R2 N007 N005 10k

.ac dec 1 1 1
.end
