* I changed this example to match the one at the start of the 2019 analogue electronics exam
M1 N002 N001 0 NMOS
V1 N004 0 5
V2 N001 0 3
R1 N004 N002 1k
.ac dec 1 1 1
.end
