* C:\Users\ngual\OneDrive - Imperial College London\#ICL#\Lab 2\ADC Part 4 week 7-9\Draft3.asc
M1 N002 N003 N004 NMOS
V1 N001 0 10
V2 N003 0 4
R1 N001 N002 5k
R3 N004 0 1k
.ac dec 1 1 1
.end
