* Z:\home\m0rtal\uni\Lab\LTSPICE\Draft1.asc
V1 N003 0 2
V2 N001 0 10
M1 N002 N003 N004 PMOS
R1 N001 N002 3k
R2 N004 0 1k
.ac dec 1 1 1
.end

