* C:\Users\ngual\OneDrive - Imperial College London\#ICL#\Lab 2\ADC Part 4 week 7-9\Draft3.asc
V1 N001 0 10
R2 N001 N002 1k
R3 N005 0 2k
Q1 N005 N004 N002 PNP
V2 N003 0 2.65
R1 N004 N003 400k
.ac dec 1 1 1
.end
