* RLC example
V1 N001 0 AC 1 0
L1 N002 out 1m
C1 0 out 1u
R1 N002 N001 10
.ac dec 100 10 10k
.end
