 * Z:\home\m0rtal\uni\Lab\LTSPICE\Draft1.asc
V1 N001 0 AC 1 0
R1 N002 N001 10
L1 N002 N003 1m
C1 N003 0 1u
.ac dec 100 10 10k
.end
