R1 0 N001 2
I1 0 N001 1
.ac dec 1 1 1
.backanno
.end
