V1 N001 0 -5
R1 N001 N002 1k
R2 N002 0 -1k
.ac dec 1 1 2
.end