* Z:\home\m0rtal\uni\Lab\LTSPICE\Draft1.asc
V1 N001 0 0
R3 N001 N003 4k
R1 N001 N005 5k
R4 N003 0 800
V2 N002 0 AC 1 0
C1 N003 N002 10u
G1 N005 N003 N003 N004 0.03845
R2 N004 0 1k
R5 N003 N004 25.876
.ac dec 1 1 1
.end

