* Z:\home\m0rtal\uni\Lab\LTSPICE\Draft1.asc
R1 N001 N003 1k
R2 N003 0 1k
V1 N001 0 12
R3 N002 0 1k
G1 N003 N002 N001 N003 0.0002
.op
.backanno
.end
