* Z:\home\m0rtal\uni\Lab\LTSPICE\Draft1.asc
R1 out N001 100
C1 out 0 1.5915u
V1 N001 0 AC 1 0
.ac dec 100 10 10000
.end

